lignd31
                    3D
 Schrodinger Suite 2023-3.
 34 36  0  0  1  0            999 V2000
    5.4960   55.6740   46.6190 C   0  0  0  0  0  0
    6.7700   55.9300   46.2470 C   0  0  0  0  0  0
    6.9420   56.1880   44.9460 C   0  0  0  0  0  0
    5.9570   56.4700   44.0260 C   0  0  0  0  0  0
    4.6340   56.2070   44.4390 C   0  0  0  0  0  0
    4.4140   55.7060   45.7010 C   0  0  0  0  0  0
    5.3000   55.3410   47.9260 O   0  0  0  0  0  0
    8.2010   56.5110   44.6410 O   0  0  0  0  0  0
    6.2220   56.9670   42.6520 C   0  0  0  0  0  0
    5.8750   56.3100   41.5820 N   0  0  0  0  0  0
    6.2690   57.1860   40.5600 N   0  0  0  0  0  0
    6.9100   58.2950   41.0000 C   0  0  0  0  0  0
    6.8980   58.1920   42.3650 N   0  0  0  0  0  0
    7.2780   59.0430   43.4300 C   0  0  0  0  0  0
    8.5970   59.5470   43.4900 C   0  0  0  0  0  0
    8.9780   60.5240   44.3600 C   0  0  0  0  0  0
    7.9910   60.9100   45.3200 C   0  0  0  0  0  0
    6.7600   60.3450   45.3450 C   0  0  0  0  0  0
    6.3390   59.4400   44.4170 C   0  0  0  0  0  0
    7.2690   59.2250   40.3590 O   0  0  0  0  0  0
    9.6510   58.9400   42.5580 C   0  0  0  0  0  0
    6.0500   56.9370   39.6070 H   0  0  0  0  0  0
    5.4260   58.9010   44.6550 H   0  0  0  0  0  0
    7.6100   55.9440   46.9370 H   0  0  0  0  0  0
    3.7780   56.3600   43.7870 H   0  0  0  0  0  0
    3.4250   55.7020   46.1530 H   0  0  0  0  0  0
    4.5440   54.7290   47.8600 H   0  0  0  0  0  0
    8.4350   55.8550   43.9600 H   0  0  0  0  0  0
    9.9680   60.9710   44.3890 H   0  0  0  0  0  0
    8.0920   61.6920   46.0670 H   0  0  0  0  0  0
    6.1030   60.5760   46.1800 H   0  0  0  0  0  0
   10.6380   59.3340   42.8110 H   0  0  0  0  0  0
    9.4650   59.2510   41.5280 H   0  0  0  0  0  0
    9.8040   57.8710   42.7150 H   0  0  0  0  0  0
  1  2  2  0  0  0
  1  6  1  0  0  0
  1  7  1  0  0  0
  2  3  1  0  0  0
  2 24  1  0  0  0
  3  4  2  0  0  0
  3  8  1  0  0  0
  4  5  1  0  0  0
  4  9  1  0  0  0
  5  6  2  0  0  0
  5 25  1  0  0  0
  6 26  1  0  0  0
  7 27  1  0  0  0
  8 28  1  0  0  0
  9 10  2  0  0  0
  9 13  1  0  0  0
 10 11  1  0  0  0
 11 12  1  0  0  0
 11 22  1  0  0  0
 12 13  1  0  0  0
 12 20  2  0  0  0
 13 14  1  0  0  0
 14 15  2  0  0  0
 14 19  1  0  0  0
 15 16  1  0  0  0
 15 21  1  0  0  0
 16 17  2  0  0  0
 16 29  1  0  0  0
 17 18  1  0  0  0
 17 30  1  0  0  0
 18 19  2  0  0  0
 18 31  1  0  0  0
 19 23  1  0  0  0
 21 32  1  0  0  0
 21 33  1  0  0  0
 21 34  1  0  0  0
M  END
> <i_m_Source_File_Index>
1

> <i_m_stars>
0

> <i_pdb_PDB_CRYST1_z>
0

> <r_pdb_PDB_CRYST1_a>
65.413

> <r_pdb_PDB_CRYST1_alpha>
90

> <r_pdb_PDB_CRYST1_b>
63.664

> <r_pdb_PDB_CRYST1_beta>
90

> <r_pdb_PDB_CRYST1_c>
64.342

> <r_pdb_PDB_CRYST1_gamma>
90

> <s_m_Source_File>
31.pdb

> <s_m_Source_Path>
/home/aaojha/Downloads/HSP90_complexes

> <s_m_entry_id>
30

> <s_m_entry_name>
Structure30

> <s_pdb_PDB_CRYST1_Space_Group>
P 1

> <s_pdb_PDB_format_version>
3.0

$$$$
